<?xml version="1.0" ?>
<routes>
	<route edges="1to2 out" id="route0"/>
	<vType id="11" length="750.6352040816327"/>
	<vType id="12" length="833.563768115942"/>
	<vType id="1111" length="1760.9952477936185"/>
	<vType id="112" length="1394.376631079478"/>
	<vType id="111" length="1099.0172786177106"/>
	<vType id="121" length="1488.3333333333333"/>
	<vType id="113" length="1454.4627906976743"/>
	<vType id="122" length="1606.4220183486239"/>
	<vType id="1211" length="1811.4056603773586"/>
	<vType id="22" length="839.8908045977012"/>
	<vType id="123" length="1565.85"/>
	<vType id="111111" length="2226.0"/>
	<vType id="2211" length="1779.0"/>
	<vType id="1112" length="1766.7777777777778"/>
	<vType id="13" length="835.3333333333334"/>
	<vType id="21" length="808.1428571428571"/>
	<vType id="11112" length="2399.0"/>
	<vType id="14" length="1077.0"/>
	<vType id="115" length="1572.0"/>
	<vType id="121211" length="1795.0"/>
	<vType id="1132" length="1718.0"/>
	<vType id="124" length="1648.5"/>
	<vType id="6" length="969.0"/>
	<vType id="133" length="1519.3333333333333"/>
	<vType id="2212" length="1856.4"/>
	<vType id="1212" length="1697.5"/>
	<vType id="125" length="1834.0"/>
	<vType id="221" length="1668.0"/>
	<vType id="1213" length="1757.5"/>
	<vType id="42" length="1780.0"/>
	<vType id="11113" length="2401.0"/>
	<vType id="2111" length="1660.0"/>
	<vType id="31" length="751.0"/>
	<vehicle depart="0" id="0" route="route0" type="11"/>
	<vehicle depart="1347.0" id="1" route="route0" type="11"/>
	<vehicle depart="1740.0" id="2" route="route0" type="11"/>
	<vehicle depart="4097.0" id="3" route="route0" type="11"/>
	<vehicle depart="8369.0" id="4" route="route0" type="12"/>
	<vehicle depart="10451.0" id="5" route="route0" type="1111"/>
	<vehicle depart="10746.0" id="6" route="route0" type="1111"/>
	<vehicle depart="11047.0" id="7" route="route0" type="11"/>
	<vehicle depart="11311.0" id="8" route="route0" type="12"/>
	<vehicle depart="15173.0" id="9" route="route0" type="11"/>
	<vehicle depart="15670.0" id="10" route="route0" type="11"/>
	<vehicle depart="16447.0" id="11" route="route0" type="11"/>
	<vehicle depart="16512.0" id="12" route="route0" type="11"/>
	<vehicle depart="17207.0" id="13" route="route0" type="11"/>
	<vehicle depart="17374.0" id="14" route="route0" type="11"/>
	<vehicle depart="18104.0" id="15" route="route0" type="112"/>
	<vehicle depart="18231.0" id="16" route="route0" type="11"/>
	<vehicle depart="18248.0" id="17" route="route0" type="1111"/>
	<vehicle depart="18298.0" id="18" route="route0" type="11"/>
	<vehicle depart="18327.0" id="19" route="route0" type="1111"/>
	<vehicle depart="18426.0" id="20" route="route0" type="11"/>
	<vehicle depart="18443.0" id="21" route="route0" type="111"/>
	<vehicle depart="18447.0" id="22" route="route0" type="121"/>
	<vehicle depart="18600.0" id="23" route="route0" type="113"/>
	<vehicle depart="18737.0" id="24" route="route0" type="122"/>
	<vehicle depart="18845.0" id="25" route="route0" type="11"/>
	<vehicle depart="18874.0" id="26" route="route0" type="111"/>
	<vehicle depart="19313.0" id="27" route="route0" type="112"/>
	<vehicle depart="19734.0" id="28" route="route0" type="11"/>
	<vehicle depart="19748.0" id="29" route="route0" type="11"/>
	<vehicle depart="19785.0" id="30" route="route0" type="111"/>
	<vehicle depart="20213.0" id="31" route="route0" type="112"/>
	<vehicle depart="20435.0" id="32" route="route0" type="11"/>
	<vehicle depart="20451.0" id="33" route="route0" type="112"/>
	<vehicle depart="20524.0" id="34" route="route0" type="1211"/>
	<vehicle depart="20525.0" id="35" route="route0" type="11"/>
	<vehicle depart="20784.0" id="36" route="route0" type="11"/>
	<vehicle depart="20827.0" id="37" route="route0" type="11"/>
	<vehicle depart="20987.0" id="38" route="route0" type="112"/>
	<vehicle depart="21025.0" id="39" route="route0" type="11"/>
	<vehicle depart="21144.0" id="40" route="route0" type="11"/>
	<vehicle depart="21152.0" id="41" route="route0" type="112"/>
	<vehicle depart="21550.0" id="42" route="route0" type="113"/>
	<vehicle depart="21615.0" id="43" route="route0" type="112"/>
	<vehicle depart="21648.0" id="44" route="route0" type="11"/>
	<vehicle depart="21675.0" id="45" route="route0" type="113"/>
	<vehicle depart="21838.0" id="46" route="route0" type="113"/>
	<vehicle depart="21846.0" id="47" route="route0" type="11"/>
	<vehicle depart="21976.0" id="48" route="route0" type="113"/>
	<vehicle depart="22096.0" id="49" route="route0" type="113"/>
	<vehicle depart="22124.0" id="50" route="route0" type="112"/>
	<vehicle depart="22132.0" id="51" route="route0" type="111"/>
	<vehicle depart="22310.0" id="52" route="route0" type="11"/>
	<vehicle depart="22438.0" id="53" route="route0" type="11"/>
	<vehicle depart="22518.0" id="54" route="route0" type="112"/>
	<vehicle depart="22577.0" id="55" route="route0" type="1111"/>
	<vehicle depart="22827.0" id="56" route="route0" type="11"/>
	<vehicle depart="23001.0" id="57" route="route0" type="11"/>
	<vehicle depart="23045.0" id="58" route="route0" type="113"/>
	<vehicle depart="23112.0" id="59" route="route0" type="12"/>
	<vehicle depart="23243.0" id="60" route="route0" type="113"/>
	<vehicle depart="23345.0" id="61" route="route0" type="11"/>
	<vehicle depart="23445.0" id="62" route="route0" type="112"/>
	<vehicle depart="23588.0" id="63" route="route0" type="113"/>
	<vehicle depart="23769.0" id="64" route="route0" type="113"/>
	<vehicle depart="23871.0" id="65" route="route0" type="112"/>
	<vehicle depart="24100.0" id="66" route="route0" type="112"/>
	<vehicle depart="24152.0" id="67" route="route0" type="113"/>
	<vehicle depart="24287.0" id="68" route="route0" type="113"/>
	<vehicle depart="24308.0" id="69" route="route0" type="113"/>
	<vehicle depart="24329.0" id="70" route="route0" type="112"/>
	<vehicle depart="24403.0" id="71" route="route0" type="11"/>
	<vehicle depart="24428.0" id="72" route="route0" type="112"/>
	<vehicle depart="24429.0" id="73" route="route0" type="11"/>
	<vehicle depart="24559.0" id="74" route="route0" type="1111"/>
	<vehicle depart="24632.0" id="75" route="route0" type="112"/>
	<vehicle depart="24640.0" id="76" route="route0" type="111"/>
	<vehicle depart="24723.0" id="77" route="route0" type="112"/>
	<vehicle depart="24864.0" id="78" route="route0" type="122"/>
	<vehicle depart="24877.0" id="79" route="route0" type="11"/>
	<vehicle depart="24913.0" id="80" route="route0" type="1111"/>
	<vehicle depart="24948.0" id="81" route="route0" type="1111"/>
	<vehicle depart="24965.0" id="82" route="route0" type="11"/>
	<vehicle depart="24980.0" id="83" route="route0" type="113"/>
	<vehicle depart="25035.0" id="84" route="route0" type="112"/>
	<vehicle depart="25063.0" id="85" route="route0" type="11"/>
	<vehicle depart="25126.0" id="86" route="route0" type="112"/>
	<vehicle depart="25129.0" id="87" route="route0" type="12"/>
	<vehicle depart="25146.0" id="88" route="route0" type="1211"/>
	<vehicle depart="25158.0" id="89" route="route0" type="122"/>
	<vehicle depart="25186.0" id="90" route="route0" type="112"/>
	<vehicle depart="25197.0" id="91" route="route0" type="113"/>
	<vehicle depart="25315.0" id="92" route="route0" type="11"/>
	<vehicle depart="25498.0" id="93" route="route0" type="112"/>
	<vehicle depart="25529.0" id="94" route="route0" type="12"/>
	<vehicle depart="25564.0" id="95" route="route0" type="112"/>
	<vehicle depart="25583.0" id="96" route="route0" type="12"/>
	<vehicle depart="25701.0" id="97" route="route0" type="1111"/>
	<vehicle depart="25776.0" id="98" route="route0" type="112"/>
	<vehicle depart="25897.0" id="99" route="route0" type="1211"/>
	<vehicle depart="25926.0" id="100" route="route0" type="112"/>
	<vehicle depart="26067.0" id="101" route="route0" type="11"/>
	<vehicle depart="26123.0" id="102" route="route0" type="22"/>
	<vehicle depart="26250.0" id="103" route="route0" type="112"/>
	<vehicle depart="26266.0" id="104" route="route0" type="11"/>
	<vehicle depart="26298.0" id="105" route="route0" type="112"/>
	<vehicle depart="26447.0" id="106" route="route0" type="123"/>
	<vehicle depart="26450.0" id="107" route="route0" type="112"/>
	<vehicle depart="26456.0" id="108" route="route0" type="11"/>
	<vehicle depart="26662.0" id="109" route="route0" type="11"/>
	<vehicle depart="26688.0" id="110" route="route0" type="11"/>
	<vehicle depart="26695.0" id="111" route="route0" type="111"/>
	<vehicle depart="26758.0" id="112" route="route0" type="12"/>
	<vehicle depart="26791.0" id="113" route="route0" type="11"/>
	<vehicle depart="26822.0" id="114" route="route0" type="113"/>
	<vehicle depart="26828.0" id="115" route="route0" type="111"/>
	<vehicle depart="26831.0" id="116" route="route0" type="112"/>
	<vehicle depart="26849.0" id="117" route="route0" type="112"/>
	<vehicle depart="26863.0" id="118" route="route0" type="11"/>
	<vehicle depart="27037.0" id="119" route="route0" type="11"/>
	<vehicle depart="27079.0" id="120" route="route0" type="11"/>
	<vehicle depart="27109.0" id="121" route="route0" type="11"/>
	<vehicle depart="27245.0" id="122" route="route0" type="22"/>
	<vehicle depart="27352.0" id="123" route="route0" type="11"/>
	<vehicle depart="27398.0" id="124" route="route0" type="111"/>
	<vehicle depart="27445.0" id="125" route="route0" type="12"/>
	<vehicle depart="27459.0" id="126" route="route0" type="11"/>
	<vehicle depart="27480.0" id="127" route="route0" type="1111"/>
	<vehicle depart="27592.0" id="128" route="route0" type="111111"/>
	<vehicle depart="27616.0" id="129" route="route0" type="1111"/>
	<vehicle depart="27623.0" id="130" route="route0" type="22"/>
	<vehicle depart="27708.0" id="131" route="route0" type="11"/>
	<vehicle depart="27750.0" id="132" route="route0" type="11"/>
	<vehicle depart="27771.0" id="133" route="route0" type="11"/>
	<vehicle depart="27779.0" id="134" route="route0" type="11"/>
	<vehicle depart="27825.0" id="135" route="route0" type="113"/>
	<vehicle depart="27840.0" id="136" route="route0" type="112"/>
	<vehicle depart="27865.0" id="137" route="route0" type="1111"/>
	<vehicle depart="27930.0" id="138" route="route0" type="11"/>
	<vehicle depart="27973.0" id="139" route="route0" type="22"/>
	<vehicle depart="28054.0" id="140" route="route0" type="111"/>
	<vehicle depart="28121.0" id="141" route="route0" type="11"/>
	<vehicle depart="28172.0" id="142" route="route0" type="1111"/>
	<vehicle depart="28198.0" id="143" route="route0" type="11"/>
	<vehicle depart="28204.0" id="144" route="route0" type="11"/>
	<vehicle depart="28238.0" id="145" route="route0" type="22"/>
	<vehicle depart="28258.0" id="146" route="route0" type="113"/>
	<vehicle depart="28279.0" id="147" route="route0" type="11"/>
	<vehicle depart="28367.0" id="148" route="route0" type="112"/>
	<vehicle depart="28382.0" id="149" route="route0" type="11"/>
	<vehicle depart="28575.0" id="150" route="route0" type="11"/>
	<vehicle depart="28624.0" id="151" route="route0" type="11"/>
	<vehicle depart="28638.0" id="152" route="route0" type="2211"/>
	<vehicle depart="28683.0" id="153" route="route0" type="113"/>
	<vehicle depart="28735.0" id="154" route="route0" type="22"/>
	<vehicle depart="28755.0" id="155" route="route0" type="11"/>
	<vehicle depart="28807.0" id="156" route="route0" type="22"/>
	<vehicle depart="28875.0" id="157" route="route0" type="11"/>
	<vehicle depart="28922.0" id="158" route="route0" type="11"/>
	<vehicle depart="28934.0" id="159" route="route0" type="112"/>
	<vehicle depart="28944.0" id="160" route="route0" type="11"/>
	<vehicle depart="29010.0" id="161" route="route0" type="112"/>
	<vehicle depart="29024.0" id="162" route="route0" type="1111"/>
	<vehicle depart="29046.0" id="163" route="route0" type="1111"/>
	<vehicle depart="29070.0" id="164" route="route0" type="11"/>
	<vehicle depart="29086.0" id="165" route="route0" type="1111"/>
	<vehicle depart="29093.0" id="166" route="route0" type="1111"/>
	<vehicle depart="29125.0" id="167" route="route0" type="113"/>
	<vehicle depart="29167.0" id="168" route="route0" type="11"/>
	<vehicle depart="29216.0" id="169" route="route0" type="112"/>
	<vehicle depart="29234.0" id="170" route="route0" type="11"/>
	<vehicle depart="29290.0" id="171" route="route0" type="22"/>
	<vehicle depart="29369.0" id="172" route="route0" type="11"/>
	<vehicle depart="29466.0" id="173" route="route0" type="11"/>
	<vehicle depart="29486.0" id="174" route="route0" type="11"/>
	<vehicle depart="29540.0" id="175" route="route0" type="22"/>
	<vehicle depart="29544.0" id="176" route="route0" type="12"/>
	<vehicle depart="29546.0" id="177" route="route0" type="1211"/>
	<vehicle depart="29628.0" id="178" route="route0" type="11"/>
	<vehicle depart="29643.0" id="179" route="route0" type="12"/>
	<vehicle depart="29695.0" id="180" route="route0" type="1111"/>
	<vehicle depart="29747.0" id="181" route="route0" type="113"/>
	<vehicle depart="29788.0" id="182" route="route0" type="11"/>
	<vehicle depart="29862.0" id="183" route="route0" type="12"/>
	<vehicle depart="29901.0" id="184" route="route0" type="12"/>
	<vehicle depart="29934.0" id="185" route="route0" type="11"/>
	<vehicle depart="29985.0" id="186" route="route0" type="113"/>
	<vehicle depart="30030.0" id="187" route="route0" type="11"/>
	<vehicle depart="30154.0" id="188" route="route0" type="22"/>
	<vehicle depart="30255.0" id="189" route="route0" type="11"/>
	<vehicle depart="30258.0" id="190" route="route0" type="11"/>
	<vehicle depart="30280.0" id="191" route="route0" type="1111"/>
	<vehicle depart="30299.0" id="192" route="route0" type="11"/>
	<vehicle depart="30310.0" id="193" route="route0" type="11"/>
	<vehicle depart="30322.0" id="194" route="route0" type="11"/>
	<vehicle depart="30326.0" id="195" route="route0" type="113"/>
	<vehicle depart="30330.0" id="196" route="route0" type="11"/>
	<vehicle depart="30378.0" id="197" route="route0" type="112"/>
	<vehicle depart="30449.0" id="198" route="route0" type="12"/>
	<vehicle depart="30492.0" id="199" route="route0" type="22"/>
	<vehicle depart="30525.0" id="200" route="route0" type="12"/>
	<vehicle depart="30536.0" id="201" route="route0" type="1111"/>
	<vehicle depart="30546.0" id="202" route="route0" type="112"/>
	<vehicle depart="30576.0" id="203" route="route0" type="11"/>
	<vehicle depart="30608.0" id="204" route="route0" type="11"/>
	<vehicle depart="30671.0" id="205" route="route0" type="11"/>
	<vehicle depart="30681.0" id="206" route="route0" type="11"/>
	<vehicle depart="30684.0" id="207" route="route0" type="1112"/>
	<vehicle depart="30738.0" id="208" route="route0" type="22"/>
	<vehicle depart="30836.0" id="209" route="route0" type="11"/>
	<vehicle depart="30920.0" id="210" route="route0" type="111"/>
	<vehicle depart="30964.0" id="211" route="route0" type="11"/>
	<vehicle depart="30968.0" id="212" route="route0" type="112"/>
	<vehicle depart="30988.0" id="213" route="route0" type="113"/>
	<vehicle depart="31024.0" id="214" route="route0" type="112"/>
	<vehicle depart="31029.0" id="215" route="route0" type="11"/>
	<vehicle depart="31117.0" id="216" route="route0" type="11"/>
	<vehicle depart="31119.0" id="217" route="route0" type="11"/>
	<vehicle depart="31207.0" id="218" route="route0" type="112"/>
	<vehicle depart="31300.0" id="219" route="route0" type="22"/>
	<vehicle depart="31302.0" id="220" route="route0" type="112"/>
	<vehicle depart="31320.0" id="221" route="route0" type="1111"/>
	<vehicle depart="31352.0" id="222" route="route0" type="22"/>
	<vehicle depart="31371.0" id="223" route="route0" type="112"/>
	<vehicle depart="31462.0" id="224" route="route0" type="1211"/>
	<vehicle depart="31470.0" id="225" route="route0" type="11"/>
	<vehicle depart="31538.0" id="226" route="route0" type="11"/>
	<vehicle depart="31561.0" id="227" route="route0" type="12"/>
	<vehicle depart="31567.0" id="228" route="route0" type="112"/>
	<vehicle depart="31605.0" id="229" route="route0" type="11"/>
	<vehicle depart="31610.0" id="230" route="route0" type="11"/>
	<vehicle depart="31738.0" id="231" route="route0" type="12"/>
	<vehicle depart="31790.0" id="232" route="route0" type="1111"/>
	<vehicle depart="31817.0" id="233" route="route0" type="11"/>
	<vehicle depart="31855.0" id="234" route="route0" type="11"/>
	<vehicle depart="31870.0" id="235" route="route0" type="22"/>
	<vehicle depart="31891.0" id="236" route="route0" type="11"/>
	<vehicle depart="31893.0" id="237" route="route0" type="11"/>
	<vehicle depart="32009.0" id="238" route="route0" type="22"/>
	<vehicle depart="32014.0" id="239" route="route0" type="1111"/>
	<vehicle depart="32080.0" id="240" route="route0" type="11"/>
	<vehicle depart="32117.0" id="241" route="route0" type="112"/>
	<vehicle depart="32122.0" id="242" route="route0" type="112"/>
	<vehicle depart="32200.0" id="243" route="route0" type="112"/>
	<vehicle depart="32243.0" id="244" route="route0" type="13"/>
	<vehicle depart="32248.0" id="245" route="route0" type="113"/>
	<vehicle depart="32251.0" id="246" route="route0" type="112"/>
	<vehicle depart="32255.0" id="247" route="route0" type="113"/>
	<vehicle depart="32301.0" id="248" route="route0" type="11"/>
	<vehicle depart="32452.0" id="249" route="route0" type="11"/>
	<vehicle depart="32460.0" id="250" route="route0" type="11"/>
	<vehicle depart="32464.0" id="251" route="route0" type="113"/>
	<vehicle depart="32506.0" id="252" route="route0" type="11"/>
	<vehicle depart="32523.0" id="253" route="route0" type="1111"/>
	<vehicle depart="32526.0" id="254" route="route0" type="112"/>
	<vehicle depart="32528.0" id="255" route="route0" type="11"/>
	<vehicle depart="32601.0" id="256" route="route0" type="12"/>
	<vehicle depart="32701.0" id="257" route="route0" type="11"/>
	<vehicle depart="32753.0" id="258" route="route0" type="113"/>
	<vehicle depart="32756.0" id="259" route="route0" type="112"/>
	<vehicle depart="32758.0" id="260" route="route0" type="11"/>
	<vehicle depart="32795.0" id="261" route="route0" type="112"/>
	<vehicle depart="32803.0" id="262" route="route0" type="122"/>
	<vehicle depart="32805.0" id="263" route="route0" type="11"/>
	<vehicle depart="32851.0" id="264" route="route0" type="1111"/>
	<vehicle depart="32855.0" id="265" route="route0" type="1111"/>
	<vehicle depart="32885.0" id="266" route="route0" type="111"/>
	<vehicle depart="32891.0" id="267" route="route0" type="12"/>
	<vehicle depart="32898.0" id="268" route="route0" type="111"/>
	<vehicle depart="32900.0" id="269" route="route0" type="112"/>
	<vehicle depart="32919.0" id="270" route="route0" type="112"/>
	<vehicle depart="32946.0" id="271" route="route0" type="1111"/>
	<vehicle depart="32975.0" id="272" route="route0" type="112"/>
	<vehicle depart="32997.0" id="273" route="route0" type="11"/>
	<vehicle depart="33016.0" id="274" route="route0" type="11"/>
	<vehicle depart="33062.0" id="275" route="route0" type="11"/>
	<vehicle depart="33116.0" id="276" route="route0" type="11"/>
	<vehicle depart="33129.0" id="277" route="route0" type="11"/>
	<vehicle depart="33246.0" id="278" route="route0" type="112"/>
	<vehicle depart="33253.0" id="279" route="route0" type="11"/>
	<vehicle depart="33272.0" id="280" route="route0" type="11"/>
	<vehicle depart="33290.0" id="281" route="route0" type="112"/>
	<vehicle depart="33306.0" id="282" route="route0" type="1111"/>
	<vehicle depart="33315.0" id="283" route="route0" type="12"/>
	<vehicle depart="33322.0" id="284" route="route0" type="11"/>
	<vehicle depart="33337.0" id="285" route="route0" type="11"/>
	<vehicle depart="33353.0" id="286" route="route0" type="22"/>
	<vehicle depart="33376.0" id="287" route="route0" type="112"/>
	<vehicle depart="33384.0" id="288" route="route0" type="11"/>
	<vehicle depart="33408.0" id="289" route="route0" type="1111"/>
	<vehicle depart="33422.0" id="290" route="route0" type="1111"/>
	<vehicle depart="33467.0" id="291" route="route0" type="112"/>
	<vehicle depart="33481.0" id="292" route="route0" type="1111"/>
	<vehicle depart="33523.0" id="293" route="route0" type="1111"/>
	<vehicle depart="33525.0" id="294" route="route0" type="11"/>
	<vehicle depart="33568.0" id="295" route="route0" type="1111"/>
	<vehicle depart="33612.0" id="296" route="route0" type="1111"/>
	<vehicle depart="33660.0" id="297" route="route0" type="11"/>
	<vehicle depart="33741.0" id="298" route="route0" type="11"/>
	<vehicle depart="33762.0" id="299" route="route0" type="11"/>
	<vehicle depart="33765.0" id="300" route="route0" type="11"/>
	<vehicle depart="33774.0" id="301" route="route0" type="1111"/>
	<vehicle depart="33788.0" id="302" route="route0" type="113"/>
	<vehicle depart="33791.0" id="303" route="route0" type="112"/>
	<vehicle depart="33812.0" id="304" route="route0" type="113"/>
	<vehicle depart="33856.0" id="305" route="route0" type="1111"/>
	<vehicle depart="33870.0" id="306" route="route0" type="11"/>
	<vehicle depart="33885.0" id="307" route="route0" type="113"/>
	<vehicle depart="33916.0" id="308" route="route0" type="112"/>
	<vehicle depart="33950.0" id="309" route="route0" type="11"/>
	<vehicle depart="33988.0" id="310" route="route0" type="112"/>
	<vehicle depart="34006.0" id="311" route="route0" type="11"/>
	<vehicle depart="34082.0" id="312" route="route0" type="1111"/>
	<vehicle depart="34096.0" id="313" route="route0" type="111"/>
	<vehicle depart="34105.0" id="314" route="route0" type="112"/>
	<vehicle depart="34122.0" id="315" route="route0" type="1111"/>
	<vehicle depart="34129.0" id="316" route="route0" type="11"/>
	<vehicle depart="34171.0" id="317" route="route0" type="11"/>
	<vehicle depart="34270.0" id="318" route="route0" type="112"/>
	<vehicle depart="34292.0" id="319" route="route0" type="112"/>
	<vehicle depart="34427.0" id="320" route="route0" type="1111"/>
	<vehicle depart="34472.0" id="321" route="route0" type="112"/>
	<vehicle depart="34488.0" id="322" route="route0" type="22"/>
	<vehicle depart="34509.0" id="323" route="route0" type="113"/>
	<vehicle depart="34558.0" id="324" route="route0" type="11"/>
	<vehicle depart="34602.0" id="325" route="route0" type="11"/>
	<vehicle depart="34669.0" id="326" route="route0" type="12"/>
	<vehicle depart="34765.0" id="327" route="route0" type="1111"/>
	<vehicle depart="34776.0" id="328" route="route0" type="112"/>
	<vehicle depart="34794.0" id="329" route="route0" type="112"/>
	<vehicle depart="34798.0" id="330" route="route0" type="11"/>
	<vehicle depart="34825.0" id="331" route="route0" type="11"/>
	<vehicle depart="34860.0" id="332" route="route0" type="11"/>
	<vehicle depart="34863.0" id="333" route="route0" type="21"/>
	<vehicle depart="34869.0" id="334" route="route0" type="11"/>
	<vehicle depart="34872.0" id="335" route="route0" type="11"/>
	<vehicle depart="34917.0" id="336" route="route0" type="1111"/>
	<vehicle depart="34963.0" id="337" route="route0" type="12"/>
	<vehicle depart="34964.0" id="338" route="route0" type="112"/>
	<vehicle depart="34967.0" id="339" route="route0" type="113"/>
	<vehicle depart="35058.0" id="340" route="route0" type="113"/>
	<vehicle depart="35131.0" id="341" route="route0" type="112"/>
	<vehicle depart="35148.0" id="342" route="route0" type="11"/>
	<vehicle depart="35150.0" id="343" route="route0" type="1111"/>
	<vehicle depart="35175.0" id="344" route="route0" type="113"/>
	<vehicle depart="35232.0" id="345" route="route0" type="112"/>
	<vehicle depart="35235.0" id="346" route="route0" type="111"/>
	<vehicle depart="35256.0" id="347" route="route0" type="11"/>
	<vehicle depart="35290.0" id="348" route="route0" type="111"/>
	<vehicle depart="35311.0" id="349" route="route0" type="112"/>
	<vehicle depart="35316.0" id="350" route="route0" type="112"/>
	<vehicle depart="35406.0" id="351" route="route0" type="11"/>
	<vehicle depart="35419.0" id="352" route="route0" type="11"/>
	<vehicle depart="35439.0" id="353" route="route0" type="113"/>
	<vehicle depart="35450.0" id="354" route="route0" type="1111"/>
	<vehicle depart="35608.0" id="355" route="route0" type="1111"/>
	<vehicle depart="35630.0" id="356" route="route0" type="11"/>
	<vehicle depart="35633.0" id="357" route="route0" type="112"/>
	<vehicle depart="35648.0" id="358" route="route0" type="113"/>
	<vehicle depart="35691.0" id="359" route="route0" type="113"/>
	<vehicle depart="35692.0" id="360" route="route0" type="113"/>
	<vehicle depart="35705.0" id="361" route="route0" type="112"/>
	<vehicle depart="35707.0" id="362" route="route0" type="113"/>
	<vehicle depart="35711.0" id="363" route="route0" type="113"/>
	<vehicle depart="35716.0" id="364" route="route0" type="11"/>
	<vehicle depart="35723.0" id="365" route="route0" type="112"/>
	<vehicle depart="35792.0" id="366" route="route0" type="11"/>
	<vehicle depart="35804.0" id="367" route="route0" type="22"/>
	<vehicle depart="35823.0" id="368" route="route0" type="1111"/>
	<vehicle depart="35837.0" id="369" route="route0" type="122"/>
	<vehicle depart="35931.0" id="370" route="route0" type="11"/>
	<vehicle depart="35968.0" id="371" route="route0" type="112"/>
	<vehicle depart="35979.0" id="372" route="route0" type="11"/>
	<vehicle depart="35986.0" id="373" route="route0" type="112"/>
	<vehicle depart="36023.0" id="374" route="route0" type="11"/>
	<vehicle depart="36029.0" id="375" route="route0" type="21"/>
	<vehicle depart="36056.0" id="376" route="route0" type="1111"/>
	<vehicle depart="36074.0" id="377" route="route0" type="113"/>
	<vehicle depart="36140.0" id="378" route="route0" type="11"/>
	<vehicle depart="36239.0" id="379" route="route0" type="113"/>
	<vehicle depart="36290.0" id="380" route="route0" type="11"/>
	<vehicle depart="36326.0" id="381" route="route0" type="11"/>
	<vehicle depart="36336.0" id="382" route="route0" type="1211"/>
	<vehicle depart="36373.0" id="383" route="route0" type="11"/>
	<vehicle depart="36382.0" id="384" route="route0" type="112"/>
	<vehicle depart="36387.0" id="385" route="route0" type="22"/>
	<vehicle depart="36435.0" id="386" route="route0" type="1111"/>
	<vehicle depart="36445.0" id="387" route="route0" type="11"/>
	<vehicle depart="36497.0" id="388" route="route0" type="12"/>
	<vehicle depart="36504.0" id="389" route="route0" type="112"/>
	<vehicle depart="36521.0" id="390" route="route0" type="11"/>
	<vehicle depart="36548.0" id="391" route="route0" type="11"/>
	<vehicle depart="36567.0" id="392" route="route0" type="11"/>
	<vehicle depart="36573.0" id="393" route="route0" type="11"/>
	<vehicle depart="36598.0" id="394" route="route0" type="1111"/>
	<vehicle depart="36610.0" id="395" route="route0" type="113"/>
	<vehicle depart="36666.0" id="396" route="route0" type="12"/>
	<vehicle depart="36677.0" id="397" route="route0" type="1111"/>
	<vehicle depart="36735.0" id="398" route="route0" type="1111"/>
	<vehicle depart="36738.0" id="399" route="route0" type="11"/>
	<vehicle depart="36741.0" id="400" route="route0" type="11"/>
	<vehicle depart="36755.0" id="401" route="route0" type="11"/>
	<vehicle depart="36758.0" id="402" route="route0" type="11"/>
	<vehicle depart="36849.0" id="403" route="route0" type="22"/>
	<vehicle depart="36884.0" id="404" route="route0" type="11"/>
	<vehicle depart="36923.0" id="405" route="route0" type="112"/>
	<vehicle depart="36930.0" id="406" route="route0" type="113"/>
	<vehicle depart="36932.0" id="407" route="route0" type="112"/>
	<vehicle depart="36959.0" id="408" route="route0" type="1111"/>
	<vehicle depart="37014.0" id="409" route="route0" type="1111"/>
	<vehicle depart="37091.0" id="410" route="route0" type="1111"/>
	<vehicle depart="37102.0" id="411" route="route0" type="11"/>
	<vehicle depart="37104.0" id="412" route="route0" type="112"/>
	<vehicle depart="37114.0" id="413" route="route0" type="112"/>
	<vehicle depart="37116.0" id="414" route="route0" type="11"/>
	<vehicle depart="37175.0" id="415" route="route0" type="112"/>
	<vehicle depart="37182.0" id="416" route="route0" type="11"/>
	<vehicle depart="37260.0" id="417" route="route0" type="11"/>
	<vehicle depart="37279.0" id="418" route="route0" type="11"/>
	<vehicle depart="37339.0" id="419" route="route0" type="11"/>
	<vehicle depart="37362.0" id="420" route="route0" type="11"/>
	<vehicle depart="37399.0" id="421" route="route0" type="22"/>
	<vehicle depart="37420.0" id="422" route="route0" type="1111"/>
	<vehicle depart="37431.0" id="423" route="route0" type="1111"/>
	<vehicle depart="37509.0" id="424" route="route0" type="11"/>
	<vehicle depart="37512.0" id="425" route="route0" type="11"/>
	<vehicle depart="37525.0" id="426" route="route0" type="112"/>
	<vehicle depart="37528.0" id="427" route="route0" type="11"/>
	<vehicle depart="37535.0" id="428" route="route0" type="11"/>
	<vehicle depart="37543.0" id="429" route="route0" type="11"/>
	<vehicle depart="37575.0" id="430" route="route0" type="112"/>
	<vehicle depart="37628.0" id="431" route="route0" type="11"/>
	<vehicle depart="37674.0" id="432" route="route0" type="12"/>
	<vehicle depart="37708.0" id="433" route="route0" type="11"/>
	<vehicle depart="37776.0" id="434" route="route0" type="11"/>
	<vehicle depart="37787.0" id="435" route="route0" type="22"/>
	<vehicle depart="37853.0" id="436" route="route0" type="112"/>
	<vehicle depart="37894.0" id="437" route="route0" type="113"/>
	<vehicle depart="37931.0" id="438" route="route0" type="11"/>
	<vehicle depart="37936.0" id="439" route="route0" type="11"/>
	<vehicle depart="37951.0" id="440" route="route0" type="1112"/>
	<vehicle depart="38000.0" id="441" route="route0" type="11"/>
	<vehicle depart="38018.0" id="442" route="route0" type="11"/>
	<vehicle depart="38020.0" id="443" route="route0" type="11"/>
	<vehicle depart="38038.0" id="444" route="route0" type="11"/>
	<vehicle depart="38088.0" id="445" route="route0" type="113"/>
	<vehicle depart="38111.0" id="446" route="route0" type="112"/>
	<vehicle depart="38199.0" id="447" route="route0" type="11"/>
	<vehicle depart="38205.0" id="448" route="route0" type="112"/>
	<vehicle depart="38294.0" id="449" route="route0" type="11"/>
	<vehicle depart="38313.0" id="450" route="route0" type="111"/>