<configuration>
    <input>
        <net-file value="hello.net.xml"/>
        <route-files value="hello.rou.xml"/>
        <gui-settings-file value="hello.settings.xml"/>
    </input>
    <time>
<!--It begins at 20435 seconds after the first car because this is when it begins to have some traffic.-->
        <begin value="20435"/>
        <end value="796514"/>
    </time>
</configuration>
